LTspice 26.0.1 for Windows
Circuit: Z:\lwc\workshops\pcg-fourier\lab-simulations\non-inverting\non-inverting.net
Start Time: Mon Apr 20 19:17:42 2026
solver = Normal
Maximum thread count: 4
tnom = 27
temp = 27
method = modified trap
Direct Newton iteration succeeded in finding operating point.
Total elapsed time: 0.113 seconds.

Files loaded:
Z:\lwc\workshops\pcg-fourier\lab-simulations\non-inverting\non-inverting.net
C:\Users\gmarx\AppData\Local\LTspice\lib\sub\opamp.sub

