LTspice 26.0.1 for Windows
Circuit: Z:\lwc\workshops\pcg-fourier\lab-simulations\non-inverting\non-invering-session.net
Start Time: Wed Apr 22 17:19:18 2026
solver = Normal
Maximum thread count: 4
tnom = 27
temp = 27
method = modified trap
.OP point found by inspection.
Total elapsed time: 0.065 seconds.

Files loaded:
Z:\lwc\workshops\pcg-fourier\lab-simulations\non-inverting\non-invering-session.net
C:\Users\gmarx\AppData\Local\LTspice\lib\sub\opamp.sub

