LTspice 26.0.1 for Windows
Circuit: Z:\lwc\workshops\pcg-fourier\lab-simulations\non-inverting\Non-inverting-amplifier-video.cir
Start Time: Wed Apr 22 18:31:47 2026
solver = Normal
Maximum thread count: 4
tnom = 27
temp = 27
method = modified trap
Direct Newton iteration succeeded in finding operating point.
Total elapsed time: 0.123 seconds.

Files loaded:
Z:\lwc\workshops\pcg-fourier\lab-simulations\non-inverting\Non-inverting-amplifier-video.cir
C:\Users\gmarx\AppData\Local\LTspice\lib\sub\opamp.sub

